from
ukrphil
prlhp
prl
philip
co
uk
m
j
phillip
subject
re
rumour
about
do
doe
exist
number
licens
philip
make
own
variant
chip
includ
extra
featurf
more
i
o
port
i
c
bu
make
more
microcontrol
like
becaus
confus
number
philip
other
product
rang
core
have
been
given
differend
number
like
pcf
pcd
someth
