from
ukrphil
prlhp
prl
philips
co
uk
m
j
phillips
subject
re
rumours
about
do
does
exist
number
licensed
philips
make
own
variant
chip
includes
extra
featurfes
more
i
o
ports
i
c
bus
making
more
microcontroller
like
because
confusion
numbering
philips
other
products
range
core
have
been
given
differend
numbers
like
pcf
pcd
something
